
**** 10/02/07 19:45:21 ******** PSpice 9.2.3 (Jan 2002) ******* ID# 1111111111 
 S 2 14


 ****     CIRCUIT DESCRIPTION


******************************************************************************



.lib cmos6tm.mod

.param ancho=150u
.param largo=0.35u

.param ampl=4
.param freq=1k
M1 out G vss vss modn w={ancho} l={largo}
.param Res=1k
Rl vdd out {Res}

.STEP lin Res 0.5k 5k 0.2k
-------------------$
ERROR -- Not a valid parameter for model type


VSS vss 0 0 DC 0

VDD vdd vss  5 DC 5
Vbias pol vss  1.08 DC 1.08
Vin pol G sin(0 {ampl} {freq}) AC 0.05
.op
.ac dec 100 10 1000G
.tran 0 5m 0.01m
.probe

.end
