
**** 09/25/07 19:01:20 ******** PSpice 9.2.3 (Jan 2002) ******* ID# 1111111111 
 S 1 3


 ****     CIRCUIT DESCRIPTION


******************************************************************************



.lib cmos6tm.mod

.param ancho=10u
.param largo=10u

.param amp=50m
.param frec=1k
M1 vdd G vss vss modn w={ancho} l={largo}

VSS vss 0 0 DC 0

VDD vdd vss  5 DC 5
Vbias pol vss  3 DC 3
Vin G pol sin(0 {amp} {frec})
.op
.tran 0 5m 0.01m

.probe

.end

**** 09/25/07 19:01:20 ******** PSpice 9.2.3 (Jan 2002) ******* ID# 1111111111 
 S 1 3


 ****     MOSFET MODEL PARAMETERS


******************************************************************************




               modn            
               NMOS            
       LEVEL    6            
           L  100.000000E-06 
           W  100.000000E-06 
         VTO     .8306       
          KP  130.718400E-06 
       GAMMA    0            
      LAMBDA    0            
         RSH   25            
          IS    1.000000E-15 
          JS   10.000000E-06 
          PB     .86         
        PBSW     .86         
          CJ  290.000000E-06 
        CJSW  230.000000E-12 
          MJ     .46         
        CGSO  350.000000E-12 
        CGDO  350.000000E-12 
        CGBO  150.000000E-12 
        NSUB   44.110000E+15 
         TOX   15.850000E-09 
          XJ  400.000000E-09 
       UCRIT   10.000000E+03 
         ETA     .3          
          KF   23.300000E-27 
          AF    1.451        
      DIOMOD    1            
         VFB   -1            
        LETA    0            
        WETA    0            
          U0     .04326      
       XPART    1            
        VTH0     .8306       
          K3    6.483        
          W0  141.000000E-09 
         NLX  100.000000E-12 
        DVT0    2.288        
        DVT1     .6563       
          UA    1.000000E-12 
          UB  772.100000E-21 
          UC    2.029000E-03 
        VSAT   95.740000E+03 
        RDSW    1.871000E+03 
        VOFF    -.0467       
     NFACTOR     .6544       
        CDSC   10.000000E-06 
        PCLM    1.504        
      PDIBL1     .2165       
      PDIBL2  991.800000E-06 
       DROUT     .5          
      PSCBE1  470.000000E+06 
          A0     .5238       
          A1    0            
          A2    1            
       NPEAK  147.700000E+15 
    SUBTHMOD    3            
       VGLOW    -.11         
      VGHIGH     .15         
          XT  120.000000E-09 
         VBM   -5            
         LDD  200.000000E-09 
        LITL  137.913000E-09 
         KT1    -.411        
         UA1    0            
         UB1    0            
         UC1    0            
        PVAG     .2544       
        KETA    -.0264       
        ETA0     .06627      
        ETAB    -.0212       
         K3B     .4676       
        DVT2    -.156        
       CDSCB   10.000000E-09 
     BULKMOD    1            
        DSUB     .5          
        RDS0    1            
         UTE   -1.8          
        LINT  198.200000E-09 
        WINT  387.700000E-09 


**** 09/25/07 19:01:20 ******** PSpice 9.2.3 (Jan 2002) ******* ID# 1111111111 
 S 1 3


 ****     SMALL SIGNAL BIAS SOLUTION       TEMPERATURE =   27.000 DEG C


******************************************************************************



 NODE   VOLTAGE     NODE   VOLTAGE     NODE   VOLTAGE     NODE   VOLTAGE


(    G)    3.0000  (  pol)    3.0000  (  vdd)    5.0000  (  vss)    0.0000  




    VOLTAGE SOURCE CURRENTS
    NAME         CURRENT

    VSS          0.000E+00
    VDD         -1.611E-04
    Vbias        0.000E+00
    Vin          0.000E+00

    TOTAL POWER DISSIPATION   8.05E-04  WATTS


**** 09/25/07 19:01:20 ******** PSpice 9.2.3 (Jan 2002) ******* ID# 1111111111 
 S 1 3


 ****     OPERATING POINT INFORMATION      TEMPERATURE =   27.000 DEG C


******************************************************************************






**** MOSFETS


NAME         M1        
MODEL        modn      
ID           1.61E-04 
VGS          3.00E+00 
VDS          5.00E+00 
VBS          0.00E+00 
VTH          8.39E-01 
VDSAT        1.66E+00 
Lin0/Sat1   -1.00E+00 
if          -1.00E+00 
ir          -1.00E+00 
TAU         -1.00E+00 
GM           1.41E-04 
GDS          1.62E-07 
GMB          3.98E-05 
CBD          0.00E+00 
CBS          0.00E+00 
CGSOV        3.50E-15 
CGDOV        3.50E-15 
CGBOV        1.50E-15 
 Derivatives of gate (dQg/dVxy) and bulk (dQb/dVxy) charges
DQGDVGB      1.72E-13 
DQGDVDB     -3.50E-15 
DQGDVSB     -1.45E-13 
DQDDVGB     -3.50E-15 
DQDDVDB      3.50E-15 
DQDDVSB      0.00E+00 
DQBDVGB     -2.01E-14 
DQBDVDB      0.00E+00 
DQBDVSB     -6.55E-14 
**** 09/25/07 19:01:20 ******** PSpice 9.2.3 (Jan 2002) ******* ID# 1111111111 
 S 1 3


 ****     INITIAL TRANSIENT SOLUTION       TEMPERATURE =   27.000 DEG C


******************************************************************************



 NODE   VOLTAGE     NODE   VOLTAGE     NODE   VOLTAGE     NODE   VOLTAGE


(    G)    3.0000  (  pol)    3.0000  (  vdd)    5.0000  (  vss)    0.0000  




    VOLTAGE SOURCE CURRENTS
    NAME         CURRENT

    VSS          0.000E+00
    VDD         -1.611E-04
    Vbias        0.000E+00
    Vin          0.000E+00

    TOTAL POWER DISSIPATION   8.05E-04  WATTS



          JOB CONCLUDED

**** 09/25/07 19:01:20 ******** PSpice 9.2.3 (Jan 2002) ******* ID# 1111111111 
 S 1 3


 ****     JOB STATISTICS SUMMARY


******************************************************************************



  Total job time (using Solver 1)   =         .02
